<?xml version="1.0" encoding="UTF-8"?>

<!-- generated on 2026-03-27 00:20:15.973383 by Eclipse SUMO randomTrips.py v1_26_0+0000-fa7df22d7f1
<configuration>
    <net-file value="D:\Education\College Project\Major\sumo_4lane_intersection_with_priority_vechicle\nets\intersection.net.xml"/>
    <route-file value="D:\Education\College Project\Major\sumo_4lane_intersection_with_priority_vechicle\nets\intersection_ambulance.rou.xml"/>
    <trip-attributes value="departLane=&quot;best&quot; departSpeed=&quot;max&quot; departPos=&quot;random&quot;"/>
    <vehicle-class value="emergency"/>
    <seed value="43"/>
    <period value="30.0"/>
</configuration>
-->

<routes xmlns:xsi="http://www.w3.org/2001/XMLSchema-instance" xsi:noNamespaceSchemaLocation="http://sumo.dlr.de/xsd/routes_file.xsd">
    <vType id="emergency" vClass="emergency"/>
    <trip id="0" depart="0.00" from="east_in" to="south_out" departLane="best" departSpeed="max" departPos="random" type="emergency"/>
    <trip id="1" depart="30.00" from="east_in" to="north_out" departLane="best" departSpeed="max" departPos="random" type="emergency"/>
    <trip id="2" depart="60.00" from="south_in" to="west_out" departLane="best" departSpeed="max" departPos="random" type="emergency"/>
    <trip id="3" depart="90.00" from="east_in" to="north_out" departLane="best" departSpeed="max" departPos="random" type="emergency"/>
    <trip id="4" depart="120.00" from="north_in" to="west_out" departLane="best" departSpeed="max" departPos="random" type="emergency"/>
    <trip id="5" depart="150.00" from="south_in" to="west_out" departLane="best" departSpeed="max" departPos="random" type="emergency"/>
    <trip id="6" depart="180.00" from="north_in" to="east_out" departLane="best" departSpeed="max" departPos="random" type="emergency"/>
    <trip id="7" depart="210.00" from="north_in" to="east_out" departLane="best" departSpeed="max" departPos="random" type="emergency"/>
    <trip id="8" depart="240.00" from="south_in" to="north_out" departLane="best" departSpeed="max" departPos="random" type="emergency"/>
    <trip id="9" depart="270.00" from="west_in" to="south_out" departLane="best" departSpeed="max" departPos="random" type="emergency"/>
    <trip id="10" depart="300.00" from="north_in" to="east_out" departLane="best" departSpeed="max" departPos="random" type="emergency"/>
    <trip id="11" depart="330.00" from="east_in" to="west_out" departLane="best" departSpeed="max" departPos="random" type="emergency"/>
    <trip id="12" depart="360.00" from="west_in" to="north_out" departLane="best" departSpeed="max" departPos="random" type="emergency"/>
    <trip id="13" depart="390.00" from="west_in" to="south_out" departLane="best" departSpeed="max" departPos="random" type="emergency"/>
    <trip id="14" depart="420.00" from="east_in" to="west_out" departLane="best" departSpeed="max" departPos="random" type="emergency"/>
    <trip id="15" depart="450.00" from="south_in" to="west_out" departLane="best" departSpeed="max" departPos="random" type="emergency"/>
    <trip id="16" depart="480.00" from="south_in" to="east_out" departLane="best" departSpeed="max" departPos="random" type="emergency"/>
    <trip id="17" depart="510.00" from="south_in" to="west_out" departLane="best" departSpeed="max" departPos="random" type="emergency"/>
    <trip id="18" depart="540.00" from="west_in" to="north_out" departLane="best" departSpeed="max" departPos="random" type="emergency"/>
    <trip id="19" depart="570.00" from="east_in" to="west_out" departLane="best" departSpeed="max" departPos="random" type="emergency"/>
    <trip id="20" depart="600.00" from="west_in" to="east_out" departLane="best" departSpeed="max" departPos="random" type="emergency"/>
    <trip id="21" depart="630.00" from="south_in" to="north_out" departLane="best" departSpeed="max" departPos="random" type="emergency"/>
    <trip id="22" depart="660.00" from="east_in" to="south_out" departLane="best" departSpeed="max" departPos="random" type="emergency"/>
    <trip id="23" depart="690.00" from="west_in" to="south_out" departLane="best" departSpeed="max" departPos="random" type="emergency"/>
    <trip id="24" depart="720.00" from="east_in" to="north_out" departLane="best" departSpeed="max" departPos="random" type="emergency"/>
    <trip id="25" depart="750.00" from="south_in" to="east_out" departLane="best" departSpeed="max" departPos="random" type="emergency"/>
    <trip id="26" depart="780.00" from="west_in" to="south_out" departLane="best" departSpeed="max" departPos="random" type="emergency"/>
    <trip id="27" depart="810.00" from="east_in" to="south_out" departLane="best" departSpeed="max" departPos="random" type="emergency"/>
    <trip id="28" depart="840.00" from="east_in" to="west_out" departLane="best" departSpeed="max" departPos="random" type="emergency"/>
    <trip id="29" depart="870.00" from="east_in" to="south_out" departLane="best" departSpeed="max" departPos="random" type="emergency"/>
    <trip id="30" depart="900.00" from="north_in" to="east_out" departLane="best" departSpeed="max" departPos="random" type="emergency"/>
    <trip id="31" depart="930.00" from="east_in" to="west_out" departLane="best" departSpeed="max" departPos="random" type="emergency"/>
    <trip id="32" depart="960.00" from="west_in" to="east_out" departLane="best" departSpeed="max" departPos="random" type="emergency"/>
    <trip id="33" depart="990.00" from="south_in" to="west_out" departLane="best" departSpeed="max" departPos="random" type="emergency"/>
    <trip id="34" depart="1020.00" from="north_in" to="south_out" departLane="best" departSpeed="max" departPos="random" type="emergency"/>
    <trip id="35" depart="1050.00" from="north_in" to="west_out" departLane="best" departSpeed="max" departPos="random" type="emergency"/>
    <trip id="36" depart="1080.00" from="south_in" to="west_out" departLane="best" departSpeed="max" departPos="random" type="emergency"/>
    <trip id="37" depart="1110.00" from="west_in" to="north_out" departLane="best" departSpeed="max" departPos="random" type="emergency"/>
    <trip id="38" depart="1140.00" from="south_in" to="east_out" departLane="best" departSpeed="max" departPos="random" type="emergency"/>
    <trip id="39" depart="1170.00" from="east_in" to="west_out" departLane="best" departSpeed="max" departPos="random" type="emergency"/>
    <trip id="40" depart="1200.00" from="north_in" to="south_out" departLane="best" departSpeed="max" departPos="random" type="emergency"/>
    <trip id="41" depart="1230.00" from="south_in" to="north_out" departLane="best" departSpeed="max" departPos="random" type="emergency"/>
    <trip id="42" depart="1260.00" from="south_in" to="west_out" departLane="best" departSpeed="max" departPos="random" type="emergency"/>
    <trip id="43" depart="1290.00" from="west_in" to="south_out" departLane="best" departSpeed="max" departPos="random" type="emergency"/>
    <trip id="44" depart="1320.00" from="west_in" to="south_out" departLane="best" departSpeed="max" departPos="random" type="emergency"/>
    <trip id="45" depart="1350.00" from="west_in" to="east_out" departLane="best" departSpeed="max" departPos="random" type="emergency"/>
    <trip id="46" depart="1380.00" from="north_in" to="west_out" departLane="best" departSpeed="max" departPos="random" type="emergency"/>
    <trip id="47" depart="1410.00" from="east_in" to="north_out" departLane="best" departSpeed="max" departPos="random" type="emergency"/>
    <trip id="48" depart="1440.00" from="south_in" to="west_out" departLane="best" departSpeed="max" departPos="random" type="emergency"/>
    <trip id="49" depart="1470.00" from="south_in" to="north_out" departLane="best" departSpeed="max" departPos="random" type="emergency"/>
    <trip id="50" depart="1500.00" from="east_in" to="west_out" departLane="best" departSpeed="max" departPos="random" type="emergency"/>
    <trip id="51" depart="1530.00" from="south_in" to="east_out" departLane="best" departSpeed="max" departPos="random" type="emergency"/>
    <trip id="52" depart="1560.00" from="south_in" to="east_out" departLane="best" departSpeed="max" departPos="random" type="emergency"/>
    <trip id="53" depart="1590.00" from="north_in" to="east_out" departLane="best" departSpeed="max" departPos="random" type="emergency"/>
    <trip id="54" depart="1620.00" from="north_in" to="east_out" departLane="best" departSpeed="max" departPos="random" type="emergency"/>
    <trip id="55" depart="1650.00" from="north_in" to="south_out" departLane="best" departSpeed="max" departPos="random" type="emergency"/>
    <trip id="56" depart="1680.00" from="north_in" to="south_out" departLane="best" departSpeed="max" departPos="random" type="emergency"/>
    <trip id="57" depart="1710.00" from="east_in" to="south_out" departLane="best" departSpeed="max" departPos="random" type="emergency"/>
    <trip id="58" depart="1740.00" from="south_in" to="north_out" departLane="best" departSpeed="max" departPos="random" type="emergency"/>
    <trip id="59" depart="1770.00" from="south_in" to="north_out" departLane="best" departSpeed="max" departPos="random" type="emergency"/>
    <trip id="60" depart="1800.00" from="south_in" to="north_out" departLane="best" departSpeed="max" departPos="random" type="emergency"/>
    <trip id="61" depart="1830.00" from="south_in" to="west_out" departLane="best" departSpeed="max" departPos="random" type="emergency"/>
    <trip id="62" depart="1860.00" from="east_in" to="west_out" departLane="best" departSpeed="max" departPos="random" type="emergency"/>
    <trip id="63" depart="1890.00" from="south_in" to="west_out" departLane="best" departSpeed="max" departPos="random" type="emergency"/>
    <trip id="64" depart="1920.00" from="south_in" to="east_out" departLane="best" departSpeed="max" departPos="random" type="emergency"/>
    <trip id="65" depart="1950.00" from="east_in" to="west_out" departLane="best" departSpeed="max" departPos="random" type="emergency"/>
    <trip id="66" depart="1980.00" from="south_in" to="west_out" departLane="best" departSpeed="max" departPos="random" type="emergency"/>
    <trip id="67" depart="2010.00" from="west_in" to="east_out" departLane="best" departSpeed="max" departPos="random" type="emergency"/>
    <trip id="68" depart="2040.00" from="west_in" to="south_out" departLane="best" departSpeed="max" departPos="random" type="emergency"/>
    <trip id="69" depart="2070.00" from="north_in" to="east_out" departLane="best" departSpeed="max" departPos="random" type="emergency"/>
    <trip id="70" depart="2100.00" from="west_in" to="north_out" departLane="best" departSpeed="max" departPos="random" type="emergency"/>
    <trip id="71" depart="2130.00" from="north_in" to="west_out" departLane="best" departSpeed="max" departPos="random" type="emergency"/>
    <trip id="72" depart="2160.00" from="south_in" to="north_out" departLane="best" departSpeed="max" departPos="random" type="emergency"/>
    <trip id="73" depart="2190.00" from="north_in" to="west_out" departLane="best" departSpeed="max" departPos="random" type="emergency"/>
    <trip id="74" depart="2220.00" from="east_in" to="north_out" departLane="best" departSpeed="max" departPos="random" type="emergency"/>
    <trip id="75" depart="2250.00" from="north_in" to="west_out" departLane="best" departSpeed="max" departPos="random" type="emergency"/>
    <trip id="76" depart="2280.00" from="east_in" to="south_out" departLane="best" departSpeed="max" departPos="random" type="emergency"/>
    <trip id="77" depart="2310.00" from="south_in" to="east_out" departLane="best" departSpeed="max" departPos="random" type="emergency"/>
    <trip id="78" depart="2340.00" from="east_in" to="west_out" departLane="best" departSpeed="max" departPos="random" type="emergency"/>
    <trip id="79" depart="2370.00" from="west_in" to="east_out" departLane="best" departSpeed="max" departPos="random" type="emergency"/>
    <trip id="80" depart="2400.00" from="east_in" to="west_out" departLane="best" departSpeed="max" departPos="random" type="emergency"/>
    <trip id="81" depart="2430.00" from="west_in" to="north_out" departLane="best" departSpeed="max" departPos="random" type="emergency"/>
    <trip id="82" depart="2460.00" from="north_in" to="west_out" departLane="best" departSpeed="max" departPos="random" type="emergency"/>
    <trip id="83" depart="2490.00" from="east_in" to="north_out" departLane="best" departSpeed="max" departPos="random" type="emergency"/>
    <trip id="84" depart="2520.00" from="south_in" to="east_out" departLane="best" departSpeed="max" departPos="random" type="emergency"/>
    <trip id="85" depart="2550.00" from="west_in" to="north_out" departLane="best" departSpeed="max" departPos="random" type="emergency"/>
    <trip id="86" depart="2580.00" from="west_in" to="north_out" departLane="best" departSpeed="max" departPos="random" type="emergency"/>
    <trip id="87" depart="2610.00" from="east_in" to="south_out" departLane="best" departSpeed="max" departPos="random" type="emergency"/>
    <trip id="88" depart="2640.00" from="north_in" to="south_out" departLane="best" departSpeed="max" departPos="random" type="emergency"/>
    <trip id="89" depart="2670.00" from="east_in" to="south_out" departLane="best" departSpeed="max" departPos="random" type="emergency"/>
    <trip id="90" depart="2700.00" from="north_in" to="west_out" departLane="best" departSpeed="max" departPos="random" type="emergency"/>
    <trip id="91" depart="2730.00" from="north_in" to="south_out" departLane="best" departSpeed="max" departPos="random" type="emergency"/>
    <trip id="92" depart="2760.00" from="east_in" to="south_out" departLane="best" departSpeed="max" departPos="random" type="emergency"/>
    <trip id="93" depart="2790.00" from="north_in" to="west_out" departLane="best" departSpeed="max" departPos="random" type="emergency"/>
    <trip id="94" depart="2820.00" from="north_in" to="east_out" departLane="best" departSpeed="max" departPos="random" type="emergency"/>
    <trip id="95" depart="2850.00" from="north_in" to="east_out" departLane="best" departSpeed="max" departPos="random" type="emergency"/>
    <trip id="96" depart="2880.00" from="east_in" to="south_out" departLane="best" departSpeed="max" departPos="random" type="emergency"/>
    <trip id="97" depart="2910.00" from="east_in" to="west_out" departLane="best" departSpeed="max" departPos="random" type="emergency"/>
    <trip id="98" depart="2940.00" from="north_in" to="east_out" departLane="best" departSpeed="max" departPos="random" type="emergency"/>
    <trip id="99" depart="2970.00" from="south_in" to="east_out" departLane="best" departSpeed="max" departPos="random" type="emergency"/>
    <trip id="100" depart="3000.00" from="south_in" to="east_out" departLane="best" departSpeed="max" departPos="random" type="emergency"/>
    <trip id="101" depart="3030.00" from="west_in" to="east_out" departLane="best" departSpeed="max" departPos="random" type="emergency"/>
    <trip id="102" depart="3060.00" from="east_in" to="north_out" departLane="best" departSpeed="max" departPos="random" type="emergency"/>
    <trip id="103" depart="3090.00" from="east_in" to="west_out" departLane="best" departSpeed="max" departPos="random" type="emergency"/>
    <trip id="104" depart="3120.00" from="south_in" to="west_out" departLane="best" departSpeed="max" departPos="random" type="emergency"/>
    <trip id="105" depart="3150.00" from="south_in" to="east_out" departLane="best" departSpeed="max" departPos="random" type="emergency"/>
    <trip id="106" depart="3180.00" from="north_in" to="south_out" departLane="best" departSpeed="max" departPos="random" type="emergency"/>
    <trip id="107" depart="3210.00" from="west_in" to="south_out" departLane="best" departSpeed="max" departPos="random" type="emergency"/>
    <trip id="108" depart="3240.00" from="north_in" to="west_out" departLane="best" departSpeed="max" departPos="random" type="emergency"/>
    <trip id="109" depart="3270.00" from="north_in" to="south_out" departLane="best" departSpeed="max" departPos="random" type="emergency"/>
    <trip id="110" depart="3300.00" from="west_in" to="south_out" departLane="best" departSpeed="max" departPos="random" type="emergency"/>
    <trip id="111" depart="3330.00" from="north_in" to="south_out" departLane="best" departSpeed="max" departPos="random" type="emergency"/>
    <trip id="112" depart="3360.00" from="east_in" to="north_out" departLane="best" departSpeed="max" departPos="random" type="emergency"/>
    <trip id="113" depart="3390.00" from="west_in" to="north_out" departLane="best" departSpeed="max" departPos="random" type="emergency"/>
    <trip id="114" depart="3420.00" from="east_in" to="west_out" departLane="best" departSpeed="max" departPos="random" type="emergency"/>
    <trip id="115" depart="3450.00" from="south_in" to="west_out" departLane="best" departSpeed="max" departPos="random" type="emergency"/>
    <trip id="116" depart="3480.00" from="east_in" to="north_out" departLane="best" departSpeed="max" departPos="random" type="emergency"/>
    <trip id="117" depart="3510.00" from="north_in" to="east_out" departLane="best" departSpeed="max" departPos="random" type="emergency"/>
    <trip id="118" depart="3540.00" from="south_in" to="north_out" departLane="best" departSpeed="max" departPos="random" type="emergency"/>
    <trip id="119" depart="3570.00" from="south_in" to="east_out" departLane="best" departSpeed="max" departPos="random" type="emergency"/>
</routes>
