<?xml version="1.0" encoding="UTF-8"?>

<!-- generated on 2026-03-27 00:20:16.144452 by Eclipse SUMO randomTrips.py v1_26_0+0000-fa7df22d7f1
<configuration>
    <net-file value="D:\Education\College Project\Major\sumo_4lane_intersection_with_priority_vechicle\nets\intersection.net.xml"/>
    <route-file value="D:\Education\College Project\Major\sumo_4lane_intersection_with_priority_vechicle\nets\intersection_ambulance.rou.xml"/>
    <trip-attributes value="departLane=&quot;best&quot; departSpeed=&quot;max&quot; departPos=&quot;random&quot;"/>
    <vehicle-class value="emergency"/>
    <seed value="43"/>
    <period value="30.0"/>
</configuration>
-->

<!-- generated on 2026-03-27T00:20:16.068815+05:30 by Eclipse SUMO duarouter 1.26.0
<duarouterConfiguration xmlns:xsi="http://www.w3.org/2001/XMLSchema-instance" xsi:noNamespaceSchemaLocation="http://sumo.dlr.de/xsd/duarouterConfiguration.xsd">

    <input>
        <net-file value="D:\Education\College Project\Major\sumo_4lane_intersection_with_priority_vechicle\nets\intersection.net.xml"/>
        <route-files value="trips.trips.xml"/>
    </input>

    <output>
        <output-file value="D:\Education\College Project\Major\sumo_4lane_intersection_with_priority_vechicle\nets\intersection_ambulance.rou.xml"/>
        <alternatives-output value="NUL"/>
    </output>

    <time>
        <begin value="0.0"/>
        <end value="3600.0"/>
    </time>

    <report>
        <no-warnings value="true"/>
        <ignore-errors value="true"/>
        <no-step-log value="true"/>
    </report>

</duarouterConfiguration>
-->

<routes xmlns:xsi="http://www.w3.org/2001/XMLSchema-instance" xsi:noNamespaceSchemaLocation="http://sumo.dlr.de/xsd/routes_file.xsd">
    <vType id="emergency" vClass="emergency" maxSpeed="25.00" color="255,0,0"/>
    <vehicle id="amb_0" type="emergency" depart="0.00" departLane="best" departPos="random" departSpeed="max">
        <route edges="east_in south_out"/>
    </vehicle>
    <vehicle id="amb_1" type="emergency" depart="30.00" departLane="best" departPos="random" departSpeed="max">
        <route edges="east_in north_out"/>
    </vehicle>
    <vehicle id="amb_2" type="emergency" depart="60.00" departLane="best" departPos="random" departSpeed="max">
        <route edges="south_in west_out"/>
    </vehicle>
    <vehicle id="amb_3" type="emergency" depart="90.00" departLane="best" departPos="random" departSpeed="max">
        <route edges="east_in north_out"/>
    </vehicle>
    <vehicle id="amb_4" type="emergency" depart="120.00" departLane="best" departPos="random" departSpeed="max">
        <route edges="north_in west_out"/>
    </vehicle>
    <vehicle id="amb_5" type="emergency" depart="150.00" departLane="best" departPos="random" departSpeed="max">
        <route edges="south_in west_out"/>
    </vehicle>
    <vehicle id="amb_6" type="emergency" depart="180.00" departLane="best" departPos="random" departSpeed="max">
        <route edges="north_in east_out"/>
    </vehicle>
    <vehicle id="amb_7" type="emergency" depart="210.00" departLane="best" departPos="random" departSpeed="max">
        <route edges="north_in east_out"/>
    </vehicle>
    <vehicle id="amb_8" type="emergency" depart="240.00" departLane="best" departPos="random" departSpeed="max">
        <route edges="south_in north_out"/>
    </vehicle>
    <vehicle id="amb_9" type="emergency" depart="270.00" departLane="best" departPos="random" departSpeed="max">
        <route edges="west_in south_out"/>
    </vehicle>
    <vehicle id="amb_10" type="emergency" depart="300.00" departLane="best" departPos="random" departSpeed="max">
        <route edges="north_in east_out"/>
    </vehicle>
    <vehicle id="amb_11" type="emergency" depart="330.00" departLane="best" departPos="random" departSpeed="max">
        <route edges="east_in west_out"/>
    </vehicle>
    <vehicle id="amb_12" type="emergency" depart="360.00" departLane="best" departPos="random" departSpeed="max">
        <route edges="west_in north_out"/>
    </vehicle>
    <vehicle id="amb_13" type="emergency" depart="390.00" departLane="best" departPos="random" departSpeed="max">
        <route edges="west_in south_out"/>
    </vehicle>
    <vehicle id="amb_14" type="emergency" depart="420.00" departLane="best" departPos="random" departSpeed="max">
        <route edges="east_in west_out"/>
    </vehicle>
    <vehicle id="amb_15" type="emergency" depart="450.00" departLane="best" departPos="random" departSpeed="max">
        <route edges="south_in west_out"/>
    </vehicle>
    <vehicle id="amb_16" type="emergency" depart="480.00" departLane="best" departPos="random" departSpeed="max">
        <route edges="south_in east_out"/>
    </vehicle>
    <vehicle id="amb_17" type="emergency" depart="510.00" departLane="best" departPos="random" departSpeed="max">
        <route edges="south_in west_out"/>
    </vehicle>
    <vehicle id="amb_18" type="emergency" depart="540.00" departLane="best" departPos="random" departSpeed="max">
        <route edges="west_in north_out"/>
    </vehicle>
    <vehicle id="amb_19" type="emergency" depart="570.00" departLane="best" departPos="random" departSpeed="max">
        <route edges="east_in west_out"/>
    </vehicle>
    <vehicle id="amb_20" type="emergency" depart="600.00" departLane="best" departPos="random" departSpeed="max">
        <route edges="west_in east_out"/>
    </vehicle>
    <vehicle id="amb_21" type="emergency" depart="630.00" departLane="best" departPos="random" departSpeed="max">
        <route edges="south_in north_out"/>
    </vehicle>
    <vehicle id="amb_22" type="emergency" depart="660.00" departLane="best" departPos="random" departSpeed="max">
        <route edges="east_in south_out"/>
    </vehicle>
    <vehicle id="amb_23" type="emergency" depart="690.00" departLane="best" departPos="random" departSpeed="max">
        <route edges="west_in south_out"/>
    </vehicle>
    <vehicle id="amb_24" type="emergency" depart="720.00" departLane="best" departPos="random" departSpeed="max">
        <route edges="east_in north_out"/>
    </vehicle>
    <vehicle id="amb_25" type="emergency" depart="750.00" departLane="best" departPos="random" departSpeed="max">
        <route edges="south_in east_out"/>
    </vehicle>
    <vehicle id="amb_26" type="emergency" depart="780.00" departLane="best" departPos="random" departSpeed="max">
        <route edges="west_in south_out"/>
    </vehicle>
    <vehicle id="amb_27" type="emergency" depart="810.00" departLane="best" departPos="random" departSpeed="max">
        <route edges="east_in south_out"/>
    </vehicle>
    <vehicle id="amb_28" type="emergency" depart="840.00" departLane="best" departPos="random" departSpeed="max">
        <route edges="east_in west_out"/>
    </vehicle>
    <vehicle id="amb_29" type="emergency" depart="870.00" departLane="best" departPos="random" departSpeed="max">
        <route edges="east_in south_out"/>
    </vehicle>
    <vehicle id="amb_30" type="emergency" depart="900.00" departLane="best" departPos="random" departSpeed="max">
        <route edges="north_in east_out"/>
    </vehicle>
    <vehicle id="amb_31" type="emergency" depart="930.00" departLane="best" departPos="random" departSpeed="max">
        <route edges="east_in west_out"/>
    </vehicle>
    <vehicle id="amb_32" type="emergency" depart="960.00" departLane="best" departPos="random" departSpeed="max">
        <route edges="west_in east_out"/>
    </vehicle>
    <vehicle id="amb_33" type="emergency" depart="990.00" departLane="best" departPos="random" departSpeed="max">
        <route edges="south_in west_out"/>
    </vehicle>
    <vehicle id="amb_34" type="emergency" depart="1020.00" departLane="best" departPos="random" departSpeed="max">
        <route edges="north_in south_out"/>
    </vehicle>
    <vehicle id="amb_35" type="emergency" depart="1050.00" departLane="best" departPos="random" departSpeed="max">
        <route edges="north_in west_out"/>
    </vehicle>
    <vehicle id="amb_36" type="emergency" depart="1080.00" departLane="best" departPos="random" departSpeed="max">
        <route edges="south_in west_out"/>
    </vehicle>
    <vehicle id="amb_37" type="emergency" depart="1110.00" departLane="best" departPos="random" departSpeed="max">
        <route edges="west_in north_out"/>
    </vehicle>
    <vehicle id="amb_38" type="emergency" depart="1140.00" departLane="best" departPos="random" departSpeed="max">
        <route edges="south_in east_out"/>
    </vehicle>
    <vehicle id="amb_39" type="emergency" depart="1170.00" departLane="best" departPos="random" departSpeed="max">
        <route edges="east_in west_out"/>
    </vehicle>
    <vehicle id="amb_40" type="emergency" depart="1200.00" departLane="best" departPos="random" departSpeed="max">
        <route edges="north_in south_out"/>
    </vehicle>
    <vehicle id="amb_41" type="emergency" depart="1230.00" departLane="best" departPos="random" departSpeed="max">
        <route edges="south_in north_out"/>
    </vehicle>
    <vehicle id="amb_42" type="emergency" depart="1260.00" departLane="best" departPos="random" departSpeed="max">
        <route edges="south_in west_out"/>
    </vehicle>
    <vehicle id="amb_43" type="emergency" depart="1290.00" departLane="best" departPos="random" departSpeed="max">
        <route edges="west_in south_out"/>
    </vehicle>
    <vehicle id="amb_44" type="emergency" depart="1320.00" departLane="best" departPos="random" departSpeed="max">
        <route edges="west_in south_out"/>
    </vehicle>
    <vehicle id="amb_45" type="emergency" depart="1350.00" departLane="best" departPos="random" departSpeed="max">
        <route edges="west_in east_out"/>
    </vehicle>
    <vehicle id="amb_46" type="emergency" depart="1380.00" departLane="best" departPos="random" departSpeed="max">
        <route edges="north_in west_out"/>
    </vehicle>
    <vehicle id="amb_47" type="emergency" depart="1410.00" departLane="best" departPos="random" departSpeed="max">
        <route edges="east_in north_out"/>
    </vehicle>
    <vehicle id="amb_48" type="emergency" depart="1440.00" departLane="best" departPos="random" departSpeed="max">
        <route edges="south_in west_out"/>
    </vehicle>
    <vehicle id="amb_49" type="emergency" depart="1470.00" departLane="best" departPos="random" departSpeed="max">
        <route edges="south_in north_out"/>
    </vehicle>
    <vehicle id="amb_50" type="emergency" depart="1500.00" departLane="best" departPos="random" departSpeed="max">
        <route edges="east_in west_out"/>
    </vehicle>
    <vehicle id="amb_51" type="emergency" depart="1530.00" departLane="best" departPos="random" departSpeed="max">
        <route edges="south_in east_out"/>
    </vehicle>
    <vehicle id="amb_52" type="emergency" depart="1560.00" departLane="best" departPos="random" departSpeed="max">
        <route edges="south_in east_out"/>
    </vehicle>
    <vehicle id="amb_53" type="emergency" depart="1590.00" departLane="best" departPos="random" departSpeed="max">
        <route edges="north_in east_out"/>
    </vehicle>
    <vehicle id="amb_54" type="emergency" depart="1620.00" departLane="best" departPos="random" departSpeed="max">
        <route edges="north_in east_out"/>
    </vehicle>
    <vehicle id="amb_55" type="emergency" depart="1650.00" departLane="best" departPos="random" departSpeed="max">
        <route edges="north_in south_out"/>
    </vehicle>
    <vehicle id="amb_56" type="emergency" depart="1680.00" departLane="best" departPos="random" departSpeed="max">
        <route edges="north_in south_out"/>
    </vehicle>
    <vehicle id="amb_57" type="emergency" depart="1710.00" departLane="best" departPos="random" departSpeed="max">
        <route edges="east_in south_out"/>
    </vehicle>
    <vehicle id="amb_58" type="emergency" depart="1740.00" departLane="best" departPos="random" departSpeed="max">
        <route edges="south_in north_out"/>
    </vehicle>
    <vehicle id="amb_59" type="emergency" depart="1770.00" departLane="best" departPos="random" departSpeed="max">
        <route edges="south_in north_out"/>
    </vehicle>
    <vehicle id="amb_60" type="emergency" depart="1800.00" departLane="best" departPos="random" departSpeed="max">
        <route edges="south_in north_out"/>
    </vehicle>
    <vehicle id="amb_61" type="emergency" depart="1830.00" departLane="best" departPos="random" departSpeed="max">
        <route edges="south_in west_out"/>
    </vehicle>
    <vehicle id="amb_62" type="emergency" depart="1860.00" departLane="best" departPos="random" departSpeed="max">
        <route edges="east_in west_out"/>
    </vehicle>
    <vehicle id="amb_63" type="emergency" depart="1890.00" departLane="best" departPos="random" departSpeed="max">
        <route edges="south_in west_out"/>
    </vehicle>
    <vehicle id="amb_64" type="emergency" depart="1920.00" departLane="best" departPos="random" departSpeed="max">
        <route edges="south_in east_out"/>
    </vehicle>
    <vehicle id="amb_65" type="emergency" depart="1950.00" departLane="best" departPos="random" departSpeed="max">
        <route edges="east_in west_out"/>
    </vehicle>
    <vehicle id="amb_66" type="emergency" depart="1980.00" departLane="best" departPos="random" departSpeed="max">
        <route edges="south_in west_out"/>
    </vehicle>
    <vehicle id="amb_67" type="emergency" depart="2010.00" departLane="best" departPos="random" departSpeed="max">
        <route edges="west_in east_out"/>
    </vehicle>
    <vehicle id="amb_68" type="emergency" depart="2040.00" departLane="best" departPos="random" departSpeed="max">
        <route edges="west_in south_out"/>
    </vehicle>
    <vehicle id="amb_69" type="emergency" depart="2070.00" departLane="best" departPos="random" departSpeed="max">
        <route edges="north_in east_out"/>
    </vehicle>
    <vehicle id="amb_70" type="emergency" depart="2100.00" departLane="best" departPos="random" departSpeed="max">
        <route edges="west_in north_out"/>
    </vehicle>
    <vehicle id="amb_71" type="emergency" depart="2130.00" departLane="best" departPos="random" departSpeed="max">
        <route edges="north_in west_out"/>
    </vehicle>
    <vehicle id="amb_72" type="emergency" depart="2160.00" departLane="best" departPos="random" departSpeed="max">
        <route edges="south_in north_out"/>
    </vehicle>
    <vehicle id="amb_73" type="emergency" depart="2190.00" departLane="best" departPos="random" departSpeed="max">
        <route edges="north_in west_out"/>
    </vehicle>
    <vehicle id="amb_74" type="emergency" depart="2220.00" departLane="best" departPos="random" departSpeed="max">
        <route edges="east_in north_out"/>
    </vehicle>
    <vehicle id="amb_75" type="emergency" depart="2250.00" departLane="best" departPos="random" departSpeed="max">
        <route edges="north_in west_out"/>
    </vehicle>
    <vehicle id="amb_76" type="emergency" depart="2280.00" departLane="best" departPos="random" departSpeed="max">
        <route edges="east_in south_out"/>
    </vehicle>
    <vehicle id="amb_77" type="emergency" depart="2310.00" departLane="best" departPos="random" departSpeed="max">
        <route edges="south_in east_out"/>
    </vehicle>
    <vehicle id="amb_78" type="emergency" depart="2340.00" departLane="best" departPos="random" departSpeed="max">
        <route edges="east_in west_out"/>
    </vehicle>
    <vehicle id="amb_79" type="emergency" depart="2370.00" departLane="best" departPos="random" departSpeed="max">
        <route edges="west_in east_out"/>
    </vehicle>
    <vehicle id="amb_80" type="emergency" depart="2400.00" departLane="best" departPos="random" departSpeed="max">
        <route edges="east_in west_out"/>
    </vehicle>
    <vehicle id="amb_81" type="emergency" depart="2430.00" departLane="best" departPos="random" departSpeed="max">
        <route edges="west_in north_out"/>
    </vehicle>
    <vehicle id="amb_82" type="emergency" depart="2460.00" departLane="best" departPos="random" departSpeed="max">
        <route edges="north_in west_out"/>
    </vehicle>
    <vehicle id="amb_83" type="emergency" depart="2490.00" departLane="best" departPos="random" departSpeed="max">
        <route edges="east_in north_out"/>
    </vehicle>
    <vehicle id="amb_84" type="emergency" depart="2520.00" departLane="best" departPos="random" departSpeed="max">
        <route edges="south_in east_out"/>
    </vehicle>
    <vehicle id="amb_85" type="emergency" depart="2550.00" departLane="best" departPos="random" departSpeed="max">
        <route edges="west_in north_out"/>
    </vehicle>
    <vehicle id="amb_86" type="emergency" depart="2580.00" departLane="best" departPos="random" departSpeed="max">
        <route edges="west_in north_out"/>
    </vehicle>
    <vehicle id="amb_87" type="emergency" depart="2610.00" departLane="best" departPos="random" departSpeed="max">
        <route edges="east_in south_out"/>
    </vehicle>
    <vehicle id="amb_88" type="emergency" depart="2640.00" departLane="best" departPos="random" departSpeed="max">
        <route edges="north_in south_out"/>
    </vehicle>
    <vehicle id="amb_89" type="emergency" depart="2670.00" departLane="best" departPos="random" departSpeed="max">
        <route edges="east_in south_out"/>
    </vehicle>
    <vehicle id="amb_90" type="emergency" depart="2700.00" departLane="best" departPos="random" departSpeed="max">
        <route edges="north_in west_out"/>
    </vehicle>
    <vehicle id="amb_91" type="emergency" depart="2730.00" departLane="best" departPos="random" departSpeed="max">
        <route edges="north_in south_out"/>
    </vehicle>
    <vehicle id="amb_92" type="emergency" depart="2760.00" departLane="best" departPos="random" departSpeed="max">
        <route edges="east_in south_out"/>
    </vehicle>
    <vehicle id="amb_93" type="emergency" depart="2790.00" departLane="best" departPos="random" departSpeed="max">
        <route edges="north_in west_out"/>
    </vehicle>
    <vehicle id="amb_94" type="emergency" depart="2820.00" departLane="best" departPos="random" departSpeed="max">
        <route edges="north_in east_out"/>
    </vehicle>
    <vehicle id="amb_95" type="emergency" depart="2850.00" departLane="best" departPos="random" departSpeed="max">
        <route edges="north_in east_out"/>
    </vehicle>
    <vehicle id="amb_96" type="emergency" depart="2880.00" departLane="best" departPos="random" departSpeed="max">
        <route edges="east_in south_out"/>
    </vehicle>
    <vehicle id="amb_97" type="emergency" depart="2910.00" departLane="best" departPos="random" departSpeed="max">
        <route edges="east_in west_out"/>
    </vehicle>
    <vehicle id="amb_98" type="emergency" depart="2940.00" departLane="best" departPos="random" departSpeed="max">
        <route edges="north_in east_out"/>
    </vehicle>
    <vehicle id="amb_99" type="emergency" depart="2970.00" departLane="best" departPos="random" departSpeed="max">
        <route edges="south_in east_out"/>
    </vehicle>
    <vehicle id="amb_100" type="emergency" depart="3000.00" departLane="best" departPos="random" departSpeed="max">
        <route edges="south_in east_out"/>
    </vehicle>
    <vehicle id="amb_101" type="emergency" depart="3030.00" departLane="best" departPos="random" departSpeed="max">
        <route edges="west_in east_out"/>
    </vehicle>
    <vehicle id="amb_102" type="emergency" depart="3060.00" departLane="best" departPos="random" departSpeed="max">
        <route edges="east_in north_out"/>
    </vehicle>
    <vehicle id="amb_103" type="emergency" depart="3090.00" departLane="best" departPos="random" departSpeed="max">
        <route edges="east_in west_out"/>
    </vehicle>
    <vehicle id="amb_104" type="emergency" depart="3120.00" departLane="best" departPos="random" departSpeed="max">
        <route edges="south_in west_out"/>
    </vehicle>
    <vehicle id="amb_105" type="emergency" depart="3150.00" departLane="best" departPos="random" departSpeed="max">
        <route edges="south_in east_out"/>
    </vehicle>
    <vehicle id="amb_106" type="emergency" depart="3180.00" departLane="best" departPos="random" departSpeed="max">
        <route edges="north_in south_out"/>
    </vehicle>
    <vehicle id="amb_107" type="emergency" depart="3210.00" departLane="best" departPos="random" departSpeed="max">
        <route edges="west_in south_out"/>
    </vehicle>
    <vehicle id="amb_108" type="emergency" depart="3240.00" departLane="best" departPos="random" departSpeed="max">
        <route edges="north_in west_out"/>
    </vehicle>
    <vehicle id="amb_109" type="emergency" depart="3270.00" departLane="best" departPos="random" departSpeed="max">
        <route edges="north_in south_out"/>
    </vehicle>
    <vehicle id="amb_110" type="emergency" depart="3300.00" departLane="best" departPos="random" departSpeed="max">
        <route edges="west_in south_out"/>
    </vehicle>
    <vehicle id="amb_111" type="emergency" depart="3330.00" departLane="best" departPos="random" departSpeed="max">
        <route edges="north_in south_out"/>
    </vehicle>
    <vehicle id="amb_112" type="emergency" depart="3360.00" departLane="best" departPos="random" departSpeed="max">
        <route edges="east_in north_out"/>
    </vehicle>
    <vehicle id="amb_113" type="emergency" depart="3390.00" departLane="best" departPos="random" departSpeed="max">
        <route edges="west_in north_out"/>
    </vehicle>
    <vehicle id="amb_114" type="emergency" depart="3420.00" departLane="best" departPos="random" departSpeed="max">
        <route edges="east_in west_out"/>
    </vehicle>
    <vehicle id="amb_115" type="emergency" depart="3450.00" departLane="best" departPos="random" departSpeed="max">
        <route edges="south_in west_out"/>
    </vehicle>
    <vehicle id="amb_116" type="emergency" depart="3480.00" departLane="best" departPos="random" departSpeed="max">
        <route edges="east_in north_out"/>
    </vehicle>
    <vehicle id="amb_117" type="emergency" depart="3510.00" departLane="best" departPos="random" departSpeed="max">
        <route edges="north_in east_out"/>
    </vehicle>
    <vehicle id="amb_118" type="emergency" depart="3540.00" departLane="best" departPos="random" departSpeed="max">
        <route edges="south_in north_out"/>
    </vehicle>
    <vehicle id="amb_119" type="emergency" depart="3570.00" departLane="best" departPos="random" departSpeed="max">
        <route edges="south_in east_out"/>
    </vehicle>
</routes>

