<?xml version="1.0" encoding="UTF-8"?>

<!-- generated on 2026-03-27 00:20:13.438702 by Eclipse SUMO randomTrips.py v1_26_0+0000-fa7df22d7f1
<configuration>
    <net-file value="D:\Education\College Project\Major\sumo_4lane_intersection_with_priority_vechicle\nets\intersection.net.xml"/>
    <route-file value="D:\Education\College Project\Major\sumo_4lane_intersection_with_priority_vechicle\nets\intersection_low.rou.xml"/>
    <trip-attributes value="departLane=&quot;best&quot; departSpeed=&quot;max&quot; departPos=&quot;random&quot;"/>
    <vehicle-class value="passenger"/>
    <period value="3.0"/>
</configuration>
-->

<!-- generated on 2026-03-27T00:20:13.337097+05:30 by Eclipse SUMO duarouter 1.26.0
<duarouterConfiguration xmlns:xsi="http://www.w3.org/2001/XMLSchema-instance" xsi:noNamespaceSchemaLocation="http://sumo.dlr.de/xsd/duarouterConfiguration.xsd">

    <input>
        <net-file value="D:\Education\College Project\Major\sumo_4lane_intersection_with_priority_vechicle\nets\intersection.net.xml"/>
        <route-files value="trips.trips.xml"/>
    </input>

    <output>
        <output-file value="D:\Education\College Project\Major\sumo_4lane_intersection_with_priority_vechicle\nets\intersection_low.rou.xml"/>
        <alternatives-output value="NUL"/>
    </output>

    <time>
        <begin value="0.0"/>
        <end value="3600.0"/>
    </time>

    <report>
        <no-warnings value="true"/>
        <ignore-errors value="true"/>
        <no-step-log value="true"/>
    </report>

</duarouterConfiguration>
-->

<routes xmlns:xsi="http://www.w3.org/2001/XMLSchema-instance" xsi:noNamespaceSchemaLocation="http://sumo.dlr.de/xsd/routes_file.xsd">
    <vType id="passenger" vClass="passenger"/>
    <vehicle id="0" type="passenger" depart="0.00" departLane="best" departPos="random" departSpeed="max">
        <route edges="south_in east_out"/>
    </vehicle>
    <vehicle id="1" type="passenger" depart="3.00" departLane="best" departPos="random" departSpeed="max">
        <route edges="north_in east_out"/>
    </vehicle>
    <vehicle id="2" type="passenger" depart="6.00" departLane="best" departPos="random" departSpeed="max">
        <route edges="west_in east_out"/>
    </vehicle>
    <vehicle id="3" type="passenger" depart="9.00" departLane="best" departPos="random" departSpeed="max">
        <route edges="north_in east_out"/>
    </vehicle>
    <vehicle id="4" type="passenger" depart="12.00" departLane="best" departPos="random" departSpeed="max">
        <route edges="east_in south_out"/>
    </vehicle>
    <vehicle id="5" type="passenger" depart="15.00" departLane="best" departPos="random" departSpeed="max">
        <route edges="east_in south_out"/>
    </vehicle>
    <vehicle id="6" type="passenger" depart="18.00" departLane="best" departPos="random" departSpeed="max">
        <route edges="west_in east_out"/>
    </vehicle>
    <vehicle id="7" type="passenger" depart="21.00" departLane="best" departPos="random" departSpeed="max">
        <route edges="west_in south_out"/>
    </vehicle>
    <vehicle id="8" type="passenger" depart="24.00" departLane="best" departPos="random" departSpeed="max">
        <route edges="north_in east_out"/>
    </vehicle>
    <vehicle id="9" type="passenger" depart="27.00" departLane="best" departPos="random" departSpeed="max">
        <route edges="west_in north_out"/>
    </vehicle>
    <vehicle id="10" type="passenger" depart="30.00" departLane="best" departPos="random" departSpeed="max">
        <route edges="west_in south_out"/>
    </vehicle>
    <vehicle id="11" type="passenger" depart="33.00" departLane="best" departPos="random" departSpeed="max">
        <route edges="west_in south_out"/>
    </vehicle>
    <vehicle id="12" type="passenger" depart="36.00" departLane="best" departPos="random" departSpeed="max">
        <route edges="south_in west_out"/>
    </vehicle>
    <vehicle id="13" type="passenger" depart="39.00" departLane="best" departPos="random" departSpeed="max">
        <route edges="north_in south_out"/>
    </vehicle>
    <vehicle id="14" type="passenger" depart="42.00" departLane="best" departPos="random" departSpeed="max">
        <route edges="west_in south_out"/>
    </vehicle>
    <vehicle id="15" type="passenger" depart="45.00" departLane="best" departPos="random" departSpeed="max">
        <route edges="west_in south_out"/>
    </vehicle>
    <vehicle id="16" type="passenger" depart="48.00" departLane="best" departPos="random" departSpeed="max">
        <route edges="south_in east_out"/>
    </vehicle>
    <vehicle id="17" type="passenger" depart="51.00" departLane="best" departPos="random" departSpeed="max">
        <route edges="east_in north_out"/>
    </vehicle>
    <vehicle id="18" type="passenger" depart="54.00" departLane="best" departPos="random" departSpeed="max">
        <route edges="east_in north_out"/>
    </vehicle>
    <vehicle id="19" type="passenger" depart="57.00" departLane="best" departPos="random" departSpeed="max">
        <route edges="south_in north_out"/>
    </vehicle>
    <vehicle id="20" type="passenger" depart="60.00" departLane="best" departPos="random" departSpeed="max">
        <route edges="north_in east_out"/>
    </vehicle>
    <vehicle id="21" type="passenger" depart="63.00" departLane="best" departPos="random" departSpeed="max">
        <route edges="north_in west_out"/>
    </vehicle>
    <vehicle id="22" type="passenger" depart="66.00" departLane="best" departPos="random" departSpeed="max">
        <route edges="east_in south_out"/>
    </vehicle>
    <vehicle id="23" type="passenger" depart="69.00" departLane="best" departPos="random" departSpeed="max">
        <route edges="east_in north_out"/>
    </vehicle>
    <vehicle id="24" type="passenger" depart="72.00" departLane="best" departPos="random" departSpeed="max">
        <route edges="west_in south_out"/>
    </vehicle>
    <vehicle id="25" type="passenger" depart="75.00" departLane="best" departPos="random" departSpeed="max">
        <route edges="east_in west_out"/>
    </vehicle>
    <vehicle id="26" type="passenger" depart="78.00" departLane="best" departPos="random" departSpeed="max">
        <route edges="west_in north_out"/>
    </vehicle>
    <vehicle id="27" type="passenger" depart="81.00" departLane="best" departPos="random" departSpeed="max">
        <route edges="south_in north_out"/>
    </vehicle>
    <vehicle id="28" type="passenger" depart="84.00" departLane="best" departPos="random" departSpeed="max">
        <route edges="west_in north_out"/>
    </vehicle>
    <vehicle id="29" type="passenger" depart="87.00" departLane="best" departPos="random" departSpeed="max">
        <route edges="north_in east_out"/>
    </vehicle>
    <vehicle id="30" type="passenger" depart="90.00" departLane="best" departPos="random" departSpeed="max">
        <route edges="south_in north_out"/>
    </vehicle>
    <vehicle id="31" type="passenger" depart="93.00" departLane="best" departPos="random" departSpeed="max">
        <route edges="south_in west_out"/>
    </vehicle>
    <vehicle id="32" type="passenger" depart="96.00" departLane="best" departPos="random" departSpeed="max">
        <route edges="north_in east_out"/>
    </vehicle>
    <vehicle id="33" type="passenger" depart="99.00" departLane="best" departPos="random" departSpeed="max">
        <route edges="west_in south_out"/>
    </vehicle>
    <vehicle id="34" type="passenger" depart="102.00" departLane="best" departPos="random" departSpeed="max">
        <route edges="east_in south_out"/>
    </vehicle>
    <vehicle id="35" type="passenger" depart="105.00" departLane="best" departPos="random" departSpeed="max">
        <route edges="west_in north_out"/>
    </vehicle>
    <vehicle id="36" type="passenger" depart="108.00" departLane="best" departPos="random" departSpeed="max">
        <route edges="east_in north_out"/>
    </vehicle>
    <vehicle id="37" type="passenger" depart="111.00" departLane="best" departPos="random" departSpeed="max">
        <route edges="west_in south_out"/>
    </vehicle>
    <vehicle id="38" type="passenger" depart="114.00" departLane="best" departPos="random" departSpeed="max">
        <route edges="east_in south_out"/>
    </vehicle>
    <vehicle id="39" type="passenger" depart="117.00" departLane="best" departPos="random" departSpeed="max">
        <route edges="north_in south_out"/>
    </vehicle>
    <vehicle id="40" type="passenger" depart="120.00" departLane="best" departPos="random" departSpeed="max">
        <route edges="east_in north_out"/>
    </vehicle>
    <vehicle id="41" type="passenger" depart="123.00" departLane="best" departPos="random" departSpeed="max">
        <route edges="north_in west_out"/>
    </vehicle>
    <vehicle id="42" type="passenger" depart="126.00" departLane="best" departPos="random" departSpeed="max">
        <route edges="west_in north_out"/>
    </vehicle>
    <vehicle id="43" type="passenger" depart="129.00" departLane="best" departPos="random" departSpeed="max">
        <route edges="south_in east_out"/>
    </vehicle>
    <vehicle id="44" type="passenger" depart="132.00" departLane="best" departPos="random" departSpeed="max">
        <route edges="north_in south_out"/>
    </vehicle>
    <vehicle id="45" type="passenger" depart="135.00" departLane="best" departPos="random" departSpeed="max">
        <route edges="south_in east_out"/>
    </vehicle>
    <vehicle id="46" type="passenger" depart="138.00" departLane="best" departPos="random" departSpeed="max">
        <route edges="west_in south_out"/>
    </vehicle>
    <vehicle id="47" type="passenger" depart="141.00" departLane="best" departPos="random" departSpeed="max">
        <route edges="west_in south_out"/>
    </vehicle>
    <vehicle id="48" type="passenger" depart="144.00" departLane="best" departPos="random" departSpeed="max">
        <route edges="east_in north_out"/>
    </vehicle>
    <vehicle id="49" type="passenger" depart="147.00" departLane="best" departPos="random" departSpeed="max">
        <route edges="east_in west_out"/>
    </vehicle>
    <vehicle id="50" type="passenger" depart="150.00" departLane="best" departPos="random" departSpeed="max">
        <route edges="north_in east_out"/>
    </vehicle>
    <vehicle id="51" type="passenger" depart="153.00" departLane="best" departPos="random" departSpeed="max">
        <route edges="east_in north_out"/>
    </vehicle>
    <vehicle id="52" type="passenger" depart="156.00" departLane="best" departPos="random" departSpeed="max">
        <route edges="east_in west_out"/>
    </vehicle>
    <vehicle id="53" type="passenger" depart="159.00" departLane="best" departPos="random" departSpeed="max">
        <route edges="west_in east_out"/>
    </vehicle>
    <vehicle id="54" type="passenger" depart="162.00" departLane="best" departPos="random" departSpeed="max">
        <route edges="north_in south_out"/>
    </vehicle>
    <vehicle id="55" type="passenger" depart="165.00" departLane="best" departPos="random" departSpeed="max">
        <route edges="north_in west_out"/>
    </vehicle>
    <vehicle id="56" type="passenger" depart="168.00" departLane="best" departPos="random" departSpeed="max">
        <route edges="north_in east_out"/>
    </vehicle>
    <vehicle id="57" type="passenger" depart="171.00" departLane="best" departPos="random" departSpeed="max">
        <route edges="east_in north_out"/>
    </vehicle>
    <vehicle id="58" type="passenger" depart="174.00" departLane="best" departPos="random" departSpeed="max">
        <route edges="west_in south_out"/>
    </vehicle>
    <vehicle id="59" type="passenger" depart="177.00" departLane="best" departPos="random" departSpeed="max">
        <route edges="north_in south_out"/>
    </vehicle>
    <vehicle id="60" type="passenger" depart="180.00" departLane="best" departPos="random" departSpeed="max">
        <route edges="north_in south_out"/>
    </vehicle>
    <vehicle id="61" type="passenger" depart="183.00" departLane="best" departPos="random" departSpeed="max">
        <route edges="east_in south_out"/>
    </vehicle>
    <vehicle id="62" type="passenger" depart="186.00" departLane="best" departPos="random" departSpeed="max">
        <route edges="east_in west_out"/>
    </vehicle>
    <vehicle id="63" type="passenger" depart="189.00" departLane="best" departPos="random" departSpeed="max">
        <route edges="west_in east_out"/>
    </vehicle>
    <vehicle id="64" type="passenger" depart="192.00" departLane="best" departPos="random" departSpeed="max">
        <route edges="east_in south_out"/>
    </vehicle>
    <vehicle id="65" type="passenger" depart="195.00" departLane="best" departPos="random" departSpeed="max">
        <route edges="west_in south_out"/>
    </vehicle>
    <vehicle id="66" type="passenger" depart="198.00" departLane="best" departPos="random" departSpeed="max">
        <route edges="north_in west_out"/>
    </vehicle>
    <vehicle id="67" type="passenger" depart="201.00" departLane="best" departPos="random" departSpeed="max">
        <route edges="west_in east_out"/>
    </vehicle>
    <vehicle id="68" type="passenger" depart="204.00" departLane="best" departPos="random" departSpeed="max">
        <route edges="east_in north_out"/>
    </vehicle>
    <vehicle id="69" type="passenger" depart="207.00" departLane="best" departPos="random" departSpeed="max">
        <route edges="west_in east_out"/>
    </vehicle>
    <vehicle id="70" type="passenger" depart="210.00" departLane="best" departPos="random" departSpeed="max">
        <route edges="west_in east_out"/>
    </vehicle>
    <vehicle id="71" type="passenger" depart="213.00" departLane="best" departPos="random" departSpeed="max">
        <route edges="east_in north_out"/>
    </vehicle>
    <vehicle id="72" type="passenger" depart="216.00" departLane="best" departPos="random" departSpeed="max">
        <route edges="east_in west_out"/>
    </vehicle>
    <vehicle id="73" type="passenger" depart="219.00" departLane="best" departPos="random" departSpeed="max">
        <route edges="north_in west_out"/>
    </vehicle>
    <vehicle id="74" type="passenger" depart="222.00" departLane="best" departPos="random" departSpeed="max">
        <route edges="south_in east_out"/>
    </vehicle>
    <vehicle id="75" type="passenger" depart="225.00" departLane="best" departPos="random" departSpeed="max">
        <route edges="west_in east_out"/>
    </vehicle>
    <vehicle id="76" type="passenger" depart="228.00" departLane="best" departPos="random" departSpeed="max">
        <route edges="north_in east_out"/>
    </vehicle>
    <vehicle id="77" type="passenger" depart="231.00" departLane="best" departPos="random" departSpeed="max">
        <route edges="north_in east_out"/>
    </vehicle>
    <vehicle id="78" type="passenger" depart="234.00" departLane="best" departPos="random" departSpeed="max">
        <route edges="north_in west_out"/>
    </vehicle>
    <vehicle id="79" type="passenger" depart="237.00" departLane="best" departPos="random" departSpeed="max">
        <route edges="north_in west_out"/>
    </vehicle>
    <vehicle id="80" type="passenger" depart="240.00" departLane="best" departPos="random" departSpeed="max">
        <route edges="east_in north_out"/>
    </vehicle>
    <vehicle id="81" type="passenger" depart="243.00" departLane="best" departPos="random" departSpeed="max">
        <route edges="west_in south_out"/>
    </vehicle>
    <vehicle id="82" type="passenger" depart="246.00" departLane="best" departPos="random" departSpeed="max">
        <route edges="east_in south_out"/>
    </vehicle>
    <vehicle id="83" type="passenger" depart="249.00" departLane="best" departPos="random" departSpeed="max">
        <route edges="south_in west_out"/>
    </vehicle>
    <vehicle id="84" type="passenger" depart="252.00" departLane="best" departPos="random" departSpeed="max">
        <route edges="east_in west_out"/>
    </vehicle>
    <vehicle id="85" type="passenger" depart="255.00" departLane="best" departPos="random" departSpeed="max">
        <route edges="west_in east_out"/>
    </vehicle>
    <vehicle id="86" type="passenger" depart="258.00" departLane="best" departPos="random" departSpeed="max">
        <route edges="north_in south_out"/>
    </vehicle>
    <vehicle id="87" type="passenger" depart="261.00" departLane="best" departPos="random" departSpeed="max">
        <route edges="south_in west_out"/>
    </vehicle>
    <vehicle id="88" type="passenger" depart="264.00" departLane="best" departPos="random" departSpeed="max">
        <route edges="east_in south_out"/>
    </vehicle>
    <vehicle id="89" type="passenger" depart="267.00" departLane="best" departPos="random" departSpeed="max">
        <route edges="east_in north_out"/>
    </vehicle>
    <vehicle id="90" type="passenger" depart="270.00" departLane="best" departPos="random" departSpeed="max">
        <route edges="south_in north_out"/>
    </vehicle>
    <vehicle id="91" type="passenger" depart="273.00" departLane="best" departPos="random" departSpeed="max">
        <route edges="north_in west_out"/>
    </vehicle>
    <vehicle id="92" type="passenger" depart="276.00" departLane="best" departPos="random" departSpeed="max">
        <route edges="east_in north_out"/>
    </vehicle>
    <vehicle id="93" type="passenger" depart="279.00" departLane="best" departPos="random" departSpeed="max">
        <route edges="north_in west_out"/>
    </vehicle>
    <vehicle id="94" type="passenger" depart="282.00" departLane="best" departPos="random" departSpeed="max">
        <route edges="north_in east_out"/>
    </vehicle>
    <vehicle id="95" type="passenger" depart="285.00" departLane="best" departPos="random" departSpeed="max">
        <route edges="west_in south_out"/>
    </vehicle>
    <vehicle id="96" type="passenger" depart="288.00" departLane="best" departPos="random" departSpeed="max">
        <route edges="south_in west_out"/>
    </vehicle>
    <vehicle id="97" type="passenger" depart="291.00" departLane="best" departPos="random" departSpeed="max">
        <route edges="south_in east_out"/>
    </vehicle>
    <vehicle id="98" type="passenger" depart="294.00" departLane="best" departPos="random" departSpeed="max">
        <route edges="west_in north_out"/>
    </vehicle>
    <vehicle id="99" type="passenger" depart="297.00" departLane="best" departPos="random" departSpeed="max">
        <route edges="south_in west_out"/>
    </vehicle>
    <vehicle id="100" type="passenger" depart="300.00" departLane="best" departPos="random" departSpeed="max">
        <route edges="east_in south_out"/>
    </vehicle>
    <vehicle id="101" type="passenger" depart="303.00" departLane="best" departPos="random" departSpeed="max">
        <route edges="north_in south_out"/>
    </vehicle>
    <vehicle id="102" type="passenger" depart="306.00" departLane="best" departPos="random" departSpeed="max">
        <route edges="south_in east_out"/>
    </vehicle>
    <vehicle id="103" type="passenger" depart="309.00" departLane="best" departPos="random" departSpeed="max">
        <route edges="south_in north_out"/>
    </vehicle>
    <vehicle id="104" type="passenger" depart="312.00" departLane="best" departPos="random" departSpeed="max">
        <route edges="north_in west_out"/>
    </vehicle>
    <vehicle id="105" type="passenger" depart="315.00" departLane="best" departPos="random" departSpeed="max">
        <route edges="west_in east_out"/>
    </vehicle>
    <vehicle id="106" type="passenger" depart="318.00" departLane="best" departPos="random" departSpeed="max">
        <route edges="east_in west_out"/>
    </vehicle>
    <vehicle id="107" type="passenger" depart="321.00" departLane="best" departPos="random" departSpeed="max">
        <route edges="south_in north_out"/>
    </vehicle>
    <vehicle id="108" type="passenger" depart="324.00" departLane="best" departPos="random" departSpeed="max">
        <route edges="north_in east_out"/>
    </vehicle>
    <vehicle id="109" type="passenger" depart="327.00" departLane="best" departPos="random" departSpeed="max">
        <route edges="east_in west_out"/>
    </vehicle>
    <vehicle id="110" type="passenger" depart="330.00" departLane="best" departPos="random" departSpeed="max">
        <route edges="west_in south_out"/>
    </vehicle>
    <vehicle id="111" type="passenger" depart="333.00" departLane="best" departPos="random" departSpeed="max">
        <route edges="west_in south_out"/>
    </vehicle>
    <vehicle id="112" type="passenger" depart="336.00" departLane="best" departPos="random" departSpeed="max">
        <route edges="north_in west_out"/>
    </vehicle>
    <vehicle id="113" type="passenger" depart="339.00" departLane="best" departPos="random" departSpeed="max">
        <route edges="west_in east_out"/>
    </vehicle>
    <vehicle id="114" type="passenger" depart="342.00" departLane="best" departPos="random" departSpeed="max">
        <route edges="north_in south_out"/>
    </vehicle>
    <vehicle id="115" type="passenger" depart="345.00" departLane="best" departPos="random" departSpeed="max">
        <route edges="east_in west_out"/>
    </vehicle>
    <vehicle id="116" type="passenger" depart="348.00" departLane="best" departPos="random" departSpeed="max">
        <route edges="east_in south_out"/>
    </vehicle>
    <vehicle id="117" type="passenger" depart="351.00" departLane="best" departPos="random" departSpeed="max">
        <route edges="north_in west_out"/>
    </vehicle>
    <vehicle id="118" type="passenger" depart="354.00" departLane="best" departPos="random" departSpeed="max">
        <route edges="west_in north_out"/>
    </vehicle>
    <vehicle id="119" type="passenger" depart="357.00" departLane="best" departPos="random" departSpeed="max">
        <route edges="west_in east_out"/>
    </vehicle>
    <vehicle id="120" type="passenger" depart="360.00" departLane="best" departPos="random" departSpeed="max">
        <route edges="east_in west_out"/>
    </vehicle>
    <vehicle id="121" type="passenger" depart="363.00" departLane="best" departPos="random" departSpeed="max">
        <route edges="west_in east_out"/>
    </vehicle>
    <vehicle id="122" type="passenger" depart="366.00" departLane="best" departPos="random" departSpeed="max">
        <route edges="north_in west_out"/>
    </vehicle>
    <vehicle id="123" type="passenger" depart="369.00" departLane="best" departPos="random" departSpeed="max">
        <route edges="west_in north_out"/>
    </vehicle>
    <vehicle id="124" type="passenger" depart="372.00" departLane="best" departPos="random" departSpeed="max">
        <route edges="south_in north_out"/>
    </vehicle>
    <vehicle id="125" type="passenger" depart="375.00" departLane="best" departPos="random" departSpeed="max">
        <route edges="west_in south_out"/>
    </vehicle>
    <vehicle id="126" type="passenger" depart="378.00" departLane="best" departPos="random" departSpeed="max">
        <route edges="west_in east_out"/>
    </vehicle>
    <vehicle id="127" type="passenger" depart="381.00" departLane="best" departPos="random" departSpeed="max">
        <route edges="west_in east_out"/>
    </vehicle>
    <vehicle id="128" type="passenger" depart="384.00" departLane="best" departPos="random" departSpeed="max">
        <route edges="west_in north_out"/>
    </vehicle>
    <vehicle id="129" type="passenger" depart="387.00" departLane="best" departPos="random" departSpeed="max">
        <route edges="east_in north_out"/>
    </vehicle>
    <vehicle id="130" type="passenger" depart="390.00" departLane="best" departPos="random" departSpeed="max">
        <route edges="south_in north_out"/>
    </vehicle>
    <vehicle id="131" type="passenger" depart="393.00" departLane="best" departPos="random" departSpeed="max">
        <route edges="north_in south_out"/>
    </vehicle>
    <vehicle id="132" type="passenger" depart="396.00" departLane="best" departPos="random" departSpeed="max">
        <route edges="north_in south_out"/>
    </vehicle>
    <vehicle id="133" type="passenger" depart="399.00" departLane="best" departPos="random" departSpeed="max">
        <route edges="east_in west_out"/>
    </vehicle>
    <vehicle id="134" type="passenger" depart="402.00" departLane="best" departPos="random" departSpeed="max">
        <route edges="north_in east_out"/>
    </vehicle>
    <vehicle id="135" type="passenger" depart="405.00" departLane="best" departPos="random" departSpeed="max">
        <route edges="south_in north_out"/>
    </vehicle>
    <vehicle id="136" type="passenger" depart="408.00" departLane="best" departPos="random" departSpeed="max">
        <route edges="north_in west_out"/>
    </vehicle>
    <vehicle id="137" type="passenger" depart="411.00" departLane="best" departPos="random" departSpeed="max">
        <route edges="south_in north_out"/>
    </vehicle>
    <vehicle id="138" type="passenger" depart="414.00" departLane="best" departPos="random" departSpeed="max">
        <route edges="east_in north_out"/>
    </vehicle>
    <vehicle id="139" type="passenger" depart="417.00" departLane="best" departPos="random" departSpeed="max">
        <route edges="west_in south_out"/>
    </vehicle>
    <vehicle id="140" type="passenger" depart="420.00" departLane="best" departPos="random" departSpeed="max">
        <route edges="west_in south_out"/>
    </vehicle>
    <vehicle id="141" type="passenger" depart="423.00" departLane="best" departPos="random" departSpeed="max">
        <route edges="north_in south_out"/>
    </vehicle>
    <vehicle id="142" type="passenger" depart="426.00" departLane="best" departPos="random" departSpeed="max">
        <route edges="east_in north_out"/>
    </vehicle>
    <vehicle id="143" type="passenger" depart="429.00" departLane="best" departPos="random" departSpeed="max">
        <route edges="north_in south_out"/>
    </vehicle>
    <vehicle id="144" type="passenger" depart="432.00" departLane="best" departPos="random" departSpeed="max">
        <route edges="south_in north_out"/>
    </vehicle>
    <vehicle id="145" type="passenger" depart="435.00" departLane="best" departPos="random" departSpeed="max">
        <route edges="north_in east_out"/>
    </vehicle>
    <vehicle id="146" type="passenger" depart="438.00" departLane="best" departPos="random" departSpeed="max">
        <route edges="north_in west_out"/>
    </vehicle>
    <vehicle id="147" type="passenger" depart="441.00" departLane="best" departPos="random" departSpeed="max">
        <route edges="west_in east_out"/>
    </vehicle>
    <vehicle id="148" type="passenger" depart="444.00" departLane="best" departPos="random" departSpeed="max">
        <route edges="east_in south_out"/>
    </vehicle>
    <vehicle id="149" type="passenger" depart="447.00" departLane="best" departPos="random" departSpeed="max">
        <route edges="south_in north_out"/>
    </vehicle>
    <vehicle id="150" type="passenger" depart="450.00" departLane="best" departPos="random" departSpeed="max">
        <route edges="south_in east_out"/>
    </vehicle>
    <vehicle id="151" type="passenger" depart="453.00" departLane="best" departPos="random" departSpeed="max">
        <route edges="east_in north_out"/>
    </vehicle>
    <vehicle id="152" type="passenger" depart="456.00" departLane="best" departPos="random" departSpeed="max">
        <route edges="west_in east_out"/>
    </vehicle>
    <vehicle id="153" type="passenger" depart="459.00" departLane="best" departPos="random" departSpeed="max">
        <route edges="north_in south_out"/>
    </vehicle>
    <vehicle id="154" type="passenger" depart="462.00" departLane="best" departPos="random" departSpeed="max">
        <route edges="east_in south_out"/>
    </vehicle>
    <vehicle id="155" type="passenger" depart="465.00" departLane="best" departPos="random" departSpeed="max">
        <route edges="north_in east_out"/>
    </vehicle>
    <vehicle id="156" type="passenger" depart="468.00" departLane="best" departPos="random" departSpeed="max">
        <route edges="south_in east_out"/>
    </vehicle>
    <vehicle id="157" type="passenger" depart="471.00" departLane="best" departPos="random" departSpeed="max">
        <route edges="east_in north_out"/>
    </vehicle>
    <vehicle id="158" type="passenger" depart="474.00" departLane="best" departPos="random" departSpeed="max">
        <route edges="east_in west_out"/>
    </vehicle>
    <vehicle id="159" type="passenger" depart="477.00" departLane="best" departPos="random" departSpeed="max">
        <route edges="south_in east_out"/>
    </vehicle>
    <vehicle id="160" type="passenger" depart="480.00" departLane="best" departPos="random" departSpeed="max">
        <route edges="east_in west_out"/>
    </vehicle>
    <vehicle id="161" type="passenger" depart="483.00" departLane="best" departPos="random" departSpeed="max">
        <route edges="north_in west_out"/>
    </vehicle>
    <vehicle id="162" type="passenger" depart="486.00" departLane="best" departPos="random" departSpeed="max">
        <route edges="south_in west_out"/>
    </vehicle>
    <vehicle id="163" type="passenger" depart="489.00" departLane="best" departPos="random" departSpeed="max">
        <route edges="south_in west_out"/>
    </vehicle>
    <vehicle id="164" type="passenger" depart="492.00" departLane="best" departPos="random" departSpeed="max">
        <route edges="west_in south_out"/>
    </vehicle>
    <vehicle id="165" type="passenger" depart="495.00" departLane="best" departPos="random" departSpeed="max">
        <route edges="west_in south_out"/>
    </vehicle>
    <vehicle id="166" type="passenger" depart="498.00" departLane="best" departPos="random" departSpeed="max">
        <route edges="west_in south_out"/>
    </vehicle>
    <vehicle id="167" type="passenger" depart="501.00" departLane="best" departPos="random" departSpeed="max">
        <route edges="east_in south_out"/>
    </vehicle>