<?xml version="1.0" encoding="UTF-8"?>

<!-- generated on 2026-03-27 00:20:16.144452 by Eclipse SUMO randomTrips.py v1_26_0+0000-fa7df22d7f1
<configuration>
    <net-file value="D:\Education\College Project\Major\sumo_4lane_intersection_with_priority_vechicle\nets\intersection.net.xml"/>
    <route-file value="D:\Education\College Project\Major\sumo_4lane_intersection_with_priority_vechicle\nets\intersection_ambulance.rou.xml"/>
    <trip-attributes value="departLane=&quot;best&quot; departSpeed=&quot;max&quot; departPos=&quot;random&quot;"/>
    <vehicle-class value="emergency"/>
    <seed value="43"/>
    <period value="30.0"/>
</configuration>
-->

<!-- generated on 2026-03-27T00:20:16.068815+05:30 by Eclipse SUMO duarouter 1.26.0
<duarouterConfiguration xmlns:xsi="http://www.w3.org/2001/XMLSchema-instance" xsi:noNamespaceSchemaLocation="http://sumo.dlr.de/xsd/duarouterConfiguration.xsd">

    <input>
        <net-file value="D:\Education\College Project\Major\sumo_4lane_intersection_with_priority_vechicle\nets\intersection.net.xml"/>
        <route-files value="trips.trips.xml"/>
    </input>

    <output>
        <output-file value="D:\Education\College Project\Major\sumo_4lane_intersection_with_priority_vechicle\nets\intersection_ambulance.rou.xml"/>
        <alternatives-output value="NUL"/>
    </output>

    <time>
        <begin value="0.0"/>
        <end value="3600.0"/>
    </time>

    <report>
        <no-warnings value="true"/>
        <ignore-errors value="true"/>
        <no-step-log value="true"/>
    </report>

</duarouterConfiguration>
-->

<routes xmlns:xsi="http://www.w3.org/2001/XMLSchema-instance" xsi:noNamespaceSchemaLocation="http://sumo.dlr.de/xsd/routes_file.xsd">
    <vType id="emergency" vClass="emergency"/>
    <vehicle id="0" type="emergency" maxSpeed="25.00" depart="0.00" departLane="best" departPos="random" departSpeed="max">
        <route edges="east_in south_out"/>
    </vehicle>
    <vehicle id="1" type="emergency" maxSpeed="25.00" depart="30.00" departLane="best" departPos="random" departSpeed="max">
        <route edges="east_in north_out"/>
    </vehicle>
    <vehicle id="2" type="emergency" maxSpeed="25.00" depart="60.00" departLane="best" departPos="random" departSpeed="max">
        <route edges="south_in west_out"/>
    </vehicle>
    <vehicle id="3" type="emergency" maxSpeed="25.00" depart="90.00" departLane="best" departPos="random" departSpeed="max">
        <route edges="east_in north_out"/>
    </vehicle>
    <vehicle id="4" type="emergency" maxSpeed="25.00" depart="120.00" departLane="best" departPos="random" departSpeed="max">
        <route edges="north_in west_out"/>
    </vehicle>
    <vehicle id="5" type="emergency" maxSpeed="25.00" depart="150.00" departLane="best" departPos="random" departSpeed="max">
        <route edges="south_in west_out"/>
    </vehicle>
    <vehicle id="6" type="emergency" maxSpeed="25.00" depart="180.00" departLane="best" departPos="random" departSpeed="max">
        <route edges="north_in east_out"/>
    </vehicle>
    <vehicle id="7" type="emergency" maxSpeed="25.00" depart="210.00" departLane="best" departPos="random" departSpeed="max">
        <route edges="north_in east_out"/>
    </vehicle>
    <vehicle id="8" type="emergency" maxSpeed="25.00" depart="240.00" departLane="best" departPos="random" departSpeed="max">
        <route edges="south_in north_out"/>
    </vehicle>
    <vehicle id="9" type="emergency" maxSpeed="25.00" depart="270.00" departLane="best" departPos="random" departSpeed="max">
        <route edges="west_in south_out"/>
    </vehicle>
    <vehicle id="10" type="emergency" maxSpeed="25.00" depart="300.00" departLane="best" departPos="random" departSpeed="max">
        <route edges="north_in east_out"/>
    </vehicle>
    <vehicle id="11" type="emergency" maxSpeed="25.00" depart="330.00" departLane="best" departPos="random" departSpeed="max">
        <route edges="east_in west_out"/>
    </vehicle>
    <vehicle id="12" type="emergency" maxSpeed="25.00" depart="360.00" departLane="best" departPos="random" departSpeed="max">
        <route edges="west_in north_out"/>
    </vehicle>
    <vehicle id="13" type="emergency" maxSpeed="25.00" depart="390.00" departLane="best" departPos="random" departSpeed="max">
        <route edges="west_in south_out"/>
    </vehicle>
    <vehicle id="14" type="emergency" maxSpeed="25.00" depart="420.00" departLane="best" departPos="random" departSpeed="max">
        <route edges="east_in west_out"/>
    </vehicle>
    <vehicle id="15" type="emergency" maxSpeed="25.00" depart="450.00" departLane="best" departPos="random" departSpeed="max">
        <route edges="south_in west_out"/>
    </vehicle>
    <vehicle id="16" type="emergency" maxSpeed="25.00" depart="480.00" departLane="best" departPos="random" departSpeed="max">
        <route edges="south_in east_out"/>
    </vehicle>
    <vehicle id="17" type="emergency" maxSpeed="25.00" depart="510.00" departLane="best" departPos="random" departSpeed="max">
        <route edges="south_in west_out"/>
    </vehicle>
    <vehicle id="18" type="emergency" maxSpeed="25.00" depart="540.00" departLane="best" departPos="random" departSpeed="max">
        <route edges="west_in north_out"/>
    </vehicle>
    <vehicle id="19" type="emergency" maxSpeed="25.00" depart="570.00" departLane="best" departPos="random" departSpeed="max">
        <route edges="east_in west_out"/>
    </vehicle>
    <vehicle id="20" type="emergency" maxSpeed="25.00" depart="600.00" departLane="best" departPos="random" departSpeed="max">
        <route edges="west_in east_out"/>
    </vehicle>
    <vehicle id="21" type="emergency" maxSpeed="25.00" depart="630.00" departLane="best" departPos="random" departSpeed="max">
        <route edges="south_in north_out"/>
    </vehicle>
    <vehicle id="22" type="emergency" maxSpeed="25.00" depart="660.00" departLane="best" departPos="random" departSpeed="max">
        <route edges="east_in south_out"/>
    </vehicle>
    <vehicle id="23" type="emergency" maxSpeed="25.00" depart="690.00" departLane="best" departPos="random" departSpeed="max">
        <route edges="west_in south_out"/>
    </vehicle>
    <vehicle id="24" type="emergency" maxSpeed="25.00" depart="720.00" departLane="best" departPos="random" departSpeed="max">
        <route edges="east_in north_out"/>
    </vehicle>
    <vehicle id="25" type="emergency" maxSpeed="25.00" depart="750.00" departLane="best" departPos="random" departSpeed="max">
        <route edges="south_in east_out"/>
    </vehicle>
    <vehicle id="26" type="emergency" maxSpeed="25.00" depart="780.00" departLane="best" departPos="random" departSpeed="max">
        <route edges="west_in south_out"/>
    </vehicle>
    <vehicle id="27" type="emergency" maxSpeed="25.00" depart="810.00" departLane="best" departPos="random" departSpeed="max">
        <route edges="east_in south_out"/>
    </vehicle>
    <vehicle id="28" type="emergency" maxSpeed="25.00" depart="840.00" departLane="best" departPos="random" departSpeed="max">
        <route edges="east_in west_out"/>
    </vehicle>
    <vehicle id="29" type="emergency" maxSpeed="25.00" depart="870.00" departLane="best" departPos="random" departSpeed="max">
        <route edges="east_in south_out"/>
    </vehicle>
    <vehicle id="30" type="emergency" maxSpeed="25.00" depart="900.00" departLane="best" departPos="random" departSpeed="max">
        <route edges="north_in east_out"/>
    </vehicle>
    <vehicle id="31" type="emergency" maxSpeed="25.00" depart="930.00" departLane="best" departPos="random" departSpeed="max">
        <route edges="east_in west_out"/>
    </vehicle>
    <vehicle id="32" type="emergency" maxSpeed="25.00" depart="960.00" departLane="best" departPos="random" departSpeed="max">
        <route edges="west_in east_out"/>
    </vehicle>
    <vehicle id="33" type="emergency" maxSpeed="25.00" depart="990.00" departLane="best" departPos="random" departSpeed="max">
        <route edges="south_in west_out"/>
    </vehicle>
    <vehicle id="34" type="emergency" maxSpeed="25.00" depart="1020.00" departLane="best" departPos="random" departSpeed="max">
        <route edges="north_in south_out"/>
    </vehicle>
    <vehicle id="35" type="emergency" maxSpeed="25.00" depart="1050.00" departLane="best" departPos="random" departSpeed="max">
        <route edges="north_in west_out"/>
    </vehicle>
    <vehicle id="36" type="emergency" maxSpeed="25.00" depart="1080.00" departLane="best" departPos="random" departSpeed="max">
        <route edges="south_in west_out"/>
    </vehicle>
    <vehicle id="37" type="emergency" maxSpeed="25.00" depart="1110.00" departLane="best" departPos="random" departSpeed="max">
        <route edges="west_in north_out"/>
    </vehicle>
    <vehicle id="38" type="emergency" maxSpeed="25.00" depart="1140.00" departLane="best" departPos="random" departSpeed="max">
        <route edges="south_in east_out"/>
    </vehicle>
    <vehicle id="39" type="emergency" maxSpeed="25.00" depart="1170.00" departLane="best" departPos="random" departSpeed="max">
        <route edges="east_in west_out"/>
    </vehicle>
    <vehicle id="40" type="emergency" maxSpeed="25.00" depart="1200.00" departLane="best" departPos="random" departSpeed="max">
        <route edges="north_in south_out"/>
    </vehicle>
    <vehicle id="41" type="emergency" maxSpeed="25.00" depart="1230.00" departLane="best" departPos="random" departSpeed="max">
        <route edges="south_in north_out"/>
    </vehicle>
    <vehicle id="42" type="emergency" maxSpeed="25.00" depart="1260.00" departLane="best" departPos="random" departSpeed="max">
        <route edges="south_in west_out"/>
    </vehicle>
    <vehicle id="43" type="emergency" maxSpeed="25.00" depart="1290.00" departLane="best" departPos="random" departSpeed="max">
        <route edges="west_in south_out"/>
    </vehicle>
    <vehicle id="44" type="emergency" maxSpeed="25.00" depart="1320.00" departLane="best" departPos="random" departSpeed="max">
        <route edges="west_in south_out"/>
    </vehicle>
    <vehicle id="45" type="emergency" maxSpeed="25.00" depart="1350.00" departLane="best" departPos="random" departSpeed="max">
        <route edges="west_in east_out"/>
    </vehicle>
    <vehicle id="46" type="emergency" maxSpeed="25.00" depart="1380.00" departLane="best" departPos="random" departSpeed="max">
        <route edges="north_in west_out"/>
    </vehicle>
    <vehicle id="47" type="emergency" maxSpeed="25.00" depart="1410.00" departLane="best" departPos="random" departSpeed="max">
        <route edges="east_in north_out"/>
    </vehicle>
    <vehicle id="48" type="emergency" maxSpeed="25.00" depart="1440.00" departLane="best" departPos="random" departSpeed="max">
        <route edges="south_in west_out"/>
    </vehicle>
    <vehicle id="49" type="emergency" maxSpeed="25.00" depart="1470.00" departLane="best" departPos="random" departSpeed="max">
        <route edges="south_in north_out"/>
    </vehicle>
    <vehicle id="50" type="emergency" maxSpeed="25.00" depart="1500.00" departLane="best" departPos="random" departSpeed="max">
        <route edges="east_in west_out"/>
    </vehicle>
    <vehicle id="51" type="emergency" maxSpeed="25.00" depart="1530.00" departLane="best" departPos="random" departSpeed="max">
        <route edges="south_in east_out"/>
    </vehicle>
    <vehicle id="52" type="emergency" maxSpeed="25.00" depart="1560.00" departLane="best" departPos="random" departSpeed="max">
        <route edges="south_in east_out"/>
    </vehicle>
    <vehicle id="53" type="emergency" maxSpeed="25.00" depart="1590.00" departLane="best" departPos="random" departSpeed="max">
        <route edges="north_in east_out"/>
    </vehicle>
    <vehicle id="54" type="emergency" maxSpeed="25.00" depart="1620.00" departLane="best" departPos="random" departSpeed="max">
        <route edges="north_in east_out"/>
    </vehicle>
    <vehicle id="55" type="emergency" maxSpeed="25.00" depart="1650.00" departLane="best" departPos="random" departSpeed="max">
        <route edges="north_in south_out"/>
    </vehicle>
    <vehicle id="56" type="emergency" maxSpeed="25.00" depart="1680.00" departLane="best" departPos="random" departSpeed="max">
        <route edges="north_in south_out"/>
    </vehicle>
    <vehicle id="57" type="emergency" maxSpeed="25.00" depart="1710.00" departLane="best" departPos="random" departSpeed="max">
        <route edges="east_in south_out"/>
    </vehicle>
    <vehicle id="58" type="emergency" maxSpeed="25.00" depart="1740.00" departLane="best" departPos="random" departSpeed="max">
        <route edges="south_in north_out"/>
    </vehicle>
    <vehicle id="59" type="emergency" maxSpeed="25.00" depart="1770.00" departLane="best" departPos="random" departSpeed="max">
        <route edges="south_in north_out"/>
    </vehicle>
    <vehicle id="60" type="emergency" maxSpeed="25.00" depart="1800.00" departLane="best" departPos="random" departSpeed="max">
        <route edges="south_in north_out"/>
    </vehicle>
    <vehicle id="61" type="emergency" maxSpeed="25.00" depart="1830.00" departLane="best" departPos="random" departSpeed="max">
        <route edges="south_in west_out"/>
    </vehicle>
    <vehicle id="62" type="emergency" maxSpeed="25.00" depart="1860.00" departLane="best" departPos="random" departSpeed="max">
        <route edges="east_in west_out"/>
    </vehicle>
    <vehicle id="63" type="emergency" maxSpeed="25.00" depart="1890.00" departLane="best" departPos="random" departSpeed="max">
        <route edges="south_in west_out"/>
    </vehicle>
    <vehicle id="64" type="emergency" maxSpeed="25.00" depart="1920.00" departLane="best" departPos="random" departSpeed="max">
        <route edges="south_in east_out"/>
    </vehicle>
    <vehicle id="65" type="emergency" maxSpeed="25.00" depart="1950.00" departLane="best" departPos="random" departSpeed="max">
        <route edges="east_in west_out"/>
    </vehicle>
    <vehicle id="66" type="emergency" maxSpeed="25.00" depart="1980.00" departLane="best" departPos="random" departSpeed="max">
        <route edges="south_in west_out"/>
    </vehicle>
    <vehicle id="67" type="emergency" maxSpeed="25.00" depart="2010.00" departLane="best" departPos="random" departSpeed="max">
        <route edges="west_in east_out"/>
    </vehicle>
    <vehicle id="68" type="emergency" maxSpeed="25.00" depart="2040.00" departLane="best" departPos="random" departSpeed="max">
        <route edges="west_in south_out"/>
    </vehicle>
    <vehicle id="69" type="emergency" maxSpeed="25.00" depart="2070.00" departLane="best" departPos="random" departSpeed="max">
        <route edges="north_in east_out"/>
    </vehicle>
    <vehicle id="70" type="emergency" maxSpeed="25.00" depart="2100.00" departLane="best" departPos="random" departSpeed="max">
        <route edges="west_in north_out"/>
    </vehicle>
    <vehicle id="71" type="emergency" maxSpeed="25.00" depart="2130.00" departLane="best" departPos="random" departSpeed="max">
        <route edges="north_in west_out"/>
    </vehicle>
    <vehicle id="72" type="emergency" maxSpeed="25.00" depart="2160.00" departLane="best" departPos="random" departSpeed="max">
        <route edges="south_in north_out"/>
    </vehicle>
    <vehicle id="73" type="emergency" maxSpeed="25.00" depart="2190.00" departLane="best" departPos="random" departSpeed="max">
        <route edges="north_in west_out"/>
    </vehicle>
    <vehicle id="74" type="emergency" maxSpeed="25.00" depart="2220.00" departLane="best" departPos="random" departSpeed="max">
        <route edges="east_in north_out"/>
    </vehicle>
    <vehicle id="75" type="emergency" maxSpeed="25.00" depart="2250.00" departLane="best" departPos="random" departSpeed="max">
        <route edges="north_in west_out"/>
    </vehicle>
    <vehicle id="76" type="emergency" maxSpeed="25.00" depart="2280.00" departLane="best" departPos="random" departSpeed="max">
        <route edges="east_in south_out"/>
    </vehicle>
    <vehicle id="77" type="emergency" maxSpeed="25.00" depart="2310.00" departLane="best" departPos="random" departSpeed="max">
        <route edges="south_in east_out"/>
    </vehicle>
    <vehicle id="78" type="emergency" maxSpeed="25.00" depart="2340.00" departLane="best" departPos="random" departSpeed="max">
        <route edges="east_in west_out"/>
    </vehicle>
    <vehicle id="79" type="emergency" maxSpeed="25.00" depart="2370.00" departLane="best" departPos="random" departSpeed="max">
        <route edges="west_in east_out"/>
    </vehicle>
    <vehicle id="80" type="emergency" maxSpeed="25.00" depart="2400.00" departLane="best" departPos="random" departSpeed="max">
        <route edges="east_in west_out"/>
    </vehicle>
    <vehicle id="81" type="emergency" maxSpeed="25.00" depart="2430.00" departLane="best" departPos="random" departSpeed="max">
        <route edges="west_in north_out"/>
    </vehicle>
    <vehicle id="82" type="emergency" maxSpeed="25.00" depart="2460.00" departLane="best" departPos="random" departSpeed="max">
        <route edges="north_in west_out"/>
    </vehicle>
    <vehicle id="83" type="emergency" maxSpeed="25.00" depart="2490.00" departLane="best" departPos="random" departSpeed="max">
        <route edges="east_in north_out"/>
    </vehicle>
    <vehicle id="84" type="emergency" maxSpeed="25.00" depart="2520.00" departLane="best" departPos="random" departSpeed="max">
        <route edges="south_in east_out"/>
    </vehicle>
    <vehicle id="85" type="emergency" maxSpeed="25.00" depart="2550.00" departLane="best" departPos="random" departSpeed="max">
        <route edges="west_in north_out"/>
    </vehicle>
    <vehicle id="86" type="emergency" maxSpeed="25.00" depart="2580.00" departLane="best" departPos="random" departSpeed="max">
        <route edges="west_in north_out"/>
    </vehicle>
    <vehicle id="87" type="emergency" maxSpeed="25.00" depart="2610.00" departLane="best" departPos="random" departSpeed="max">
        <route edges="east_in south_out"/>
    </vehicle>
    <vehicle id="88" type="emergency" maxSpeed="25.00" depart="2640.00" departLane="best" departPos="random" departSpeed="max">
        <route edges="north_in south_out"/>
    </vehicle>
    <vehicle id="89" type="emergency" maxSpeed="25.00" depart="2670.00" departLane="best" departPos="random" departSpeed="max">
        <route edges="east_in south_out"/>
    </vehicle>
    <vehicle id="90" type="emergency" maxSpeed="25.00" depart="2700.00" departLane="best" departPos="random" departSpeed="max">
        <route edges="north_in west_out"/>
    </vehicle>
    <vehicle id="91" type="emergency" maxSpeed="25.00" depart="2730.00" departLane="best" departPos="random" departSpeed="max">
        <route edges="north_in south_out"/>
    </vehicle>
    <vehicle id="92" type="emergency" maxSpeed="25.00" depart="2760.00" departLane="best" departPos="random" departSpeed="max">
        <route edges="east_in south_out"/>
    </vehicle>
    <vehicle id="93" type="emergency" maxSpeed="25.00" depart="2790.00" departLane="best" departPos="random" departSpeed="max">
        <route edges="north_in west_out"/>
    </vehicle>
    <vehicle id="94" type="emergency" maxSpeed="25.00" depart="2820.00" departLane="best" departPos="random" departSpeed="max">
        <route edges="north_in east_out"/>
    </vehicle>
    <vehicle id="95" type="emergency" maxSpeed="25.00" depart="2850.00" departLane="best" departPos="random" departSpeed="max">
        <route edges="north_in east_out"/>
    </vehicle>
    <vehicle id="96" type="emergency" maxSpeed="25.00" depart="2880.00" departLane="best" departPos="random" departSpeed="max">
        <route edges="east_in south_out"/>
    </vehicle>
    <vehicle id="97" type="emergency" maxSpeed="25.00" depart="2910.00" departLane="best" departPos="random" departSpeed="max">
        <route edges="east_in west_out"/>
    </vehicle>
    <vehicle id="98" type="emergency" maxSpeed="25.00" depart="2940.00" departLane="best" departPos="random" departSpeed="max">
        <route edges="north_in east_out"/>
    </vehicle>
    <vehicle id="99" type="emergency" maxSpeed="25.00" depart="2970.00" departLane="best" departPos="random" departSpeed="max">
        <route edges="south_in east_out"/>
    </vehicle>
    <vehicle id="100" type="emergency" maxSpeed="25.00" depart="3000.00" departLane="best" departPos="random" departSpeed="max">
        <route edges="south_in east_out"/>
    </vehicle>
    <vehicle id="101" type="emergency" maxSpeed="25.00" depart="3030.00" departLane="best" departPos="random" departSpeed="max">
        <route edges="west_in east_out"/>
    </vehicle>
    <vehicle id="102" type="emergency" maxSpeed="25.00" depart="3060.00" departLane="best" departPos="random" departSpeed="max">
        <route edges="east_in north_out"/>
    </vehicle>
    <vehicle id="103" type="emergency" maxSpeed="25.00" depart="3090.00" departLane="best" departPos="random" departSpeed="max">
        <route edges="east_in west_out"/>
    </vehicle>
    <vehicle id="104" type="emergency" maxSpeed="25.00" depart="3120.00" departLane="best" departPos="random" departSpeed="max">
        <route edges="south_in west_out"/>
    </vehicle>
    <vehicle id="105" type="emergency" maxSpeed="25.00" depart="3150.00" departLane="best" departPos="random" departSpeed="max">
        <route edges="south_in east_out"/>
    </vehicle>
    <vehicle id="106" type="emergency" maxSpeed="25.00" depart="3180.00" departLane="best" departPos="random" departSpeed="max">
        <route edges="north_in south_out"/>
    </vehicle>
    <vehicle id="107" type="emergency" maxSpeed="25.00" depart="3210.00" departLane="best" departPos="random" departSpeed="max">
        <route edges="west_in south_out"/>
    </vehicle>
    <vehicle id="108" type="emergency" maxSpeed="25.00" depart="3240.00" departLane="best" departPos="random" departSpeed="max">
        <route edges="north_in west_out"/>
    </vehicle>
    <vehicle id="109" type="emergency" maxSpeed="25.00" depart="3270.00" departLane="best" departPos="random" departSpeed="max">
        <route edges="north_in south_out"/>
    </vehicle>
    <vehicle id="110" type="emergency" maxSpeed="25.00" depart="3300.00" departLane="best" departPos="random" departSpeed="max">
        <route edges="west_in south_out"/>
    </vehicle>
    <vehicle id="111" type="emergency" maxSpeed="25.00" depart="3330.00" departLane="best" departPos="random" departSpeed="max">
        <route edges="north_in south_out"/>
    </vehicle>
    <vehicle id="112" type="emergency" maxSpeed="25.00" depart="3360.00" departLane="best" departPos="random" departSpeed="max">
        <route edges="east_in north_out"/>
    </vehicle>
    <vehicle id="113" type="emergency" maxSpeed="25.00" depart="3390.00" departLane="best" departPos="random" departSpeed="max">
        <route edges="west_in north_out"/>
    </vehicle>
    <vehicle id="114" type="emergency" maxSpeed="25.00" depart="3420.00" departLane="best" departPos="random" departSpeed="max">
        <route edges="east_in west_out"/>
    </vehicle>
    <vehicle id="115" type="emergency" maxSpeed="25.00" depart="3450.00" departLane="best" departPos="random" departSpeed="max">
        <route edges="south_in west_out"/>
    </vehicle>
    <vehicle id="116" type="emergency" maxSpeed="25.00" depart="3480.00" departLane="best" departPos="random" departSpeed="max">
        <route edges="east_in north_out"/>
    </vehicle>
    <vehicle id="117" type="emergency" maxSpeed="25.00" depart="3510.00" departLane="best" departPos="random" departSpeed="max">
        <route edges="north_in east_out"/>
    </vehicle>
    <vehicle id="118" type="emergency" maxSpeed="25.00" depart="3540.00" departLane="best" departPos="random" departSpeed="max">
        <route edges="south_in north_out"/>
    </vehicle>
    <vehicle id="119" type="emergency" maxSpeed="25.00" depart="3570.00" departLane="best" departPos="random" departSpeed="max">
        <route edges="south_in east_out"/>
    </vehicle>
</routes>
